test/test_files/validation_tests/case1354pegase_res.m
function mpc = case1354pegase_res
%CASE1354PEGASE_RES

%% MATPOWER Case Format : Version 2
mpc.version = '2';

%%-----  Power Flow Data  -----%%
%% system MVA base
mpc.baseMVA = 100;

%% bus data
%    bus_i    type    Pd    Qd    Gs    Bs    area    Vm    Va    baseKV    zone    Vmax    Vmin
mpc.bus = [
    3    1    151    48.8    0    4.69    0    1.01667381    -21.690087    220    5    1.1    0.9;
    4    1    171.41    23.4    0    2.1    0    1.02665025    -6.96355688    220    5    1.1    0.9;
    10    1    134    24.7    0    12.44    0    1.03851644    -24.1536819    220    5    1.1    0.9;
    21    1    161.2    39.3    0    30.71    0    1.03617709    -21.83071    220    5    1.1    0.9;
    22    1    0    -0    0    0.85    0    1.03507162    -18.3868902    220    5    1.1    0.9;
    26    1    167.3    54.8    0    110.54    0    1.03228273    -3.28200869    380    5    1.1    0.9;
    29    1    152.9    49.4    0    27.65    0    0.994408252    -13.6767865    380    5    1.1    0.9;
    44    1    -0    0    0    7.27    0    1.04581149    -22.0526452    220    5    1.1    0.9;
    53    1    48.65    16.1    0    7.14    0    1.06343628    -9.11827132    220    5    1.1    0.9;
    58    1    0    0    0    2.31    0    0.986242542    -15.6088024    380    5    1.1    0.9;
    59    1    119.2    20.7    0    3.31    0    1.03681643    -23.59109    220    5    1.1    0.9;
    90    1    363.25    115.39    0    3.95    0    1.04218722    -27.4678613    220    5    1.1    0.9;
    96    1    -8.4    28.66    0    3.49    0    1.03043962    -15.5684583    220    5    1.1    0.9;
    113    1    -0    -0    0    6.532711    0    1.03071953    -14.1462297    380    5    1.1    0.9;
    115    1    0    -0    0    4.21    0    1.06681518    -19.6090593    220    5    1.1    0.9;
    118    1    704.53    -35.33    0    13.102834    0    1.02026357    -11.3575729    380    5    1.1    0.9;
    124    2    0    0    0    0    0    1.081537    8.34861415    220    5    1.1    0.9;
    128    1    23.73    12.7    0    0.52    0    1.02052541    -15.9973954    220    5    1.1    0.9;
    145    1    38.34    5.6    0    7.64    0    1.03909547    -8.86727735    220    5    1.1    0.9;
    148    1    32.34    12    0    6.1    0    1.04156827    -7.96703991    220    5    1.1    0.9;
    150    2    0    0    0    0    0    1.062805    2.56056116    220    5    1.1    0.9;
    163    1    147.76    32.73    0    8.34    0    1.04705223    -10.5937589    220    5    1.1    0.9;
    171    1    100.8    13.2    0    5.24    0    1.0696392    -25.0573753    220    5    1.1    0.9;
    174    1    370.5    -17    0    9.91    0    1.07480197    -27.7766043    220    5    1.1    0.9;
    184    1    -0    -0    0    2.42    0    1.04298749    -12.0125713    220    5    1.1    0.9;
    188    1    36.84    13.9    0    3.3    0    1.01876048    -19.4556338    220    5    1.1    0.9;
    195    1    73.14    21.55    0    8.52    0    1.05633572    -8.56287529    220    5    1.1    0.9;
    196    1    0    -0    0    12.48    0    1.07479314    -26.1874262    220    5    1.1    0.9;
    198    1    39.74    11.8    0    1.44    0    1.01677287    -16.2399149    220    5    1.1    0.9;
    207    1    321.98    84.4    0    1.34    0    1.02689258    -13.5811591    220    5    1.1    0.9;
    216    1    155.6    54.7    0    2.21    0    1.03936156    -24.4812558    220    5    1.1    0.9;
    217    1    105.2    0.1    0    7.36    0    1.04276504    -2.54384097    220    5    1.1    0.9;
    218    1    69.83    15.12    0    2.23    0    1.04592612    -13.0399739    220    5    1.1    0.9;
    221    2    0    0    0    0    0    0.984682    -16.2438249    380    5    1.1    0.9;
    225    1    0    0    0    1.15    0    1.06377882    -19.999598    220    5    1.1    0.9;
    280    1    119.6    29.6    0    5.34    0    1.03572307    -11.1194669    220    5    1.1    0.9;
    283    1    27.33    11.9    0    1.17    0    1.03558776    -12.2714113    220    5    1.1    0.9;
    292    1    13.82    1.4    0    0.7    0    1.04755322    -14.6964581    220    5    1.1    0.9;
    305    1    103    12    0    0.63    0    1.06705903    -32.5091782    220    5    1.1    0.9;
    306    1    -0    0    0    4.76    0    1.02999906    -18.6886256    220    5    1.1    0.9;
    314    1    163.1    46.3    0    10.6    0    1.00558665    -15.9486873    220    5    1.1    0.9;
    333    1    524.5    43    0    6.85    0    1.01494521    -42.0452259    220    5    1.1    0.9;
    338    2    0    0    0    0    0    1.048249    -6.09158879    220    5    1.1    0.9;
    346    1    197.5    48.3    0    0.71    0    1.04069658    -21.1892107    220    5    1.1    0.9;
    350    1    110.4    26.2    0    5.62    0    1.04317731    -24.1641294    220    5    1.1    0.9;
    352    2    0    0    0    0    0    1.055378    0.410266195    380    5    1.1    0.9;
    367    1    65.17    -51.5    0    4.85    0    1.07160967    -23.4667082    220    5    1.1    0.9;
    401    1    56.5    36.29    0    3.08    0    1.02654727    -14.2050901    220    5    1.1    0.9;
    408    1    129.1    7.4    0    0.04    0    1.03979036    -11.792479    220    5    1.1    0.9;
    410    1    170.89    50.38    0    6.44    0    1.04156657    -26.3905988    220    5    1.1    0.9;
    413    2    0    0    0    0    0    1.05013    -6.45033342    220    5    1.1    0.9;
    416    1    70.68    13.5    0    6.96    0    1.04580021    -6.65576767    220    5    1.1    0.9;
    426    1    123.1    6.5    0    3.25    0    1.04050757    -18.337477    220    5    1.1    0.9;
    432    1    -0    -0    0    68.517663    0    1.04780284    2.42155498    380    5    1.1    0.9;
    444    1    0    -0    0    2.45    0    1.03654469    -12.3233754    220    5    1.1    0.9;
    449    1    0    0    0    29.42    0    1.0217406    -8.33390937    380    5    1.1    0.9;
    453    2    0    0    0    0    0    1.018914    -7.76193484    380    5    1.1    0.9;
    455    1    274.32    5.66    0    13.24    0    1.0462019    -30.7600101    220    5    1.1    0.9;
    490    1    20.52    4    0    2.77    0    1.03645157    -22.8893953    220    5    1.1    0.9;
    500    1    144.4    35.5    0    7.66    0    1.04042359    -14.9699491    220    5    1.1    0.9;
    502    1    -0    0    0    1.96    0    1.04356437    -6.65077362    220    5    1.1    0.9;
    506    1    -0    0    0    0.4    0    1.06329636    -9.07851749    380    5    1.1    0.9;
    513    1    57.46    17.1    0    1.61    0    1.03848272    -7.41572383    220    5    1.1    0.9;
    516    2    0    0    0    0    0    1.075592    -33.2733136    220    5    1.1    0.9;
    520    1    118.5    20.4    0    2.57    0    1.04823882    -27.0406843    220    5    1.1    0.9;
    549    1    0    -0    0    5.15    0    1.07567331    -10.5736633    220    5    1.1    0.9;
    554    1    0    -0    0    1.97    0    1.02408568    -20.6965706    220    5    1.1    0.9;
    556    1    16.52    9    0    1.17    0    1.03693978    -22.6380341    220    5    1.1    0.9;
    561    1    0    -0    0    0.32    0    1.05544865    -11.1239649    220    5    1.1    0.9;
    564    2    0    0    0    0    0    1.069817    -47.0894183    220    5    1.1    0.9;
    575    1    0    -0    0    0.67    0    1.04439234    -11.3174336    220    5    1.1    0.9;
    583    2    0    0    0    0    0    1.045397    -15.4951968    220    5    1.1    0.9;
    594    1    67.57    17    0    5.75    0    1.03668411    -8.71351965    220    5    1.1    0.9;
    601    1    140.6    42.6    0    5.71    0    1.04068801    -14.3484274    220    5    1.1    0.9;
    604    1    33.24    4.4    0    24.54    0    0.996941052    -12.8254224    380    5    1.1    0.9;
    608    1    150.9    10.4    0    4.77    0    1.07175375    -32.5911572    220    5    1.1    0.9;
    609    1    -0    -0    0    5.67    0    1.02534521    -14.7071339    220    5    1.1    0.9;
    615    2    0    0    0    0    0    1.063876    -10.5530435    220    5    1.1    0.9;
    616    2    0    0    0    0    0    1.048713    -12.9270574    220    5    1.1    0.9;
    619    1    72.88    14.4    0    2.96    0    1.0467553    -25.1513656    220    5    1.1    0.9;
    639    2    0    0    0    0    0    1.051376    -30.2722586    220    5    1.1    0.9;
    641    1    45.32    18.5    0    0.74    0    1.03515015    -13.837655    220    5    1.1    0.9;
    658    1    258.4    66.7    0    5.87    0    1.03398224    -17.4004782    220    5    1.1    0.9;
    661    1    -0    -0    0    0.6    0    1.04002194    2.47192363    380    5    1.1    0.9;
    666    1    -5.61    -2.79    0    150.93    0    1.03076601    -5.33805458    380    5    1.1    0.9;
    678    1    232.1    89.8    0    0.09    0    0.986375398    -18.299315    220    5    1.1    0.9;
    682    2    0    0    0    0    0    1.0691    -9.77794017    220    5    1.1    0.9;
    687    1    -0    0    0    5.6    0    1.05781682    -3.51528954    220    5    1.1    0.9;
    707    1    83.99    21.2    0    5.36    0    1.05453638    -25.5008064    220    5    1.1    0.9;
    718    1    135.11    41    0    5.31    0    1.03115327    -24.8224073    220    5    1.1    0.9;
    720    1    -0    -0    0    23.554121    0    0.982112975    -27.0912163    380    5    1.1    0.9;
    726    1    400.3    189.9    0    0.53    0    1.04846925    -4.37946929    220    5    1.1    0.9;
    742    1    0    -0    0    2.83    0    1.05798656    -3.51679775    220    5    1.1    0.9;
    747    1    69.58    16    0    3.03    0    1.07389045    -26.2481309    220    5    1.1    0.9;
    749    2    0    0    0    0    0    1.057884    -28.8796681    220    5    1.1    0.9;
    750    1    -0    -0    0    18.63    0    1.04114095    -24.3355065    220    5    1.1    0.9;
    757    2    0    0    0    0    0    1.017567    -13.6687916    380    5    1.1    0.9;
    766    1    -0    0    0    7.85    0    1.05023212    -20.7837623    220    5    1.1    0.9;
    769    1    152.57    40    0    6.12    0    1.02402604    -10.5565417    220    5    1.1    0.9;
    772    1    343.9    141.9    0    5.55    0    1.03436232    -14.0952285    220    5    1.1    0.9;
    776    2    0    0    0    0    0    1.026368    -13.2988565    220    5    1.1    0.9;
    778    2    0    0    0    0    0    1.049411    -6.61000305    220    5    1.1    0.9;
    789    1    -0    -0    0    6.63    0    1.0516897    -5.88269354    220    5    1.1    0.9;
    795    2    0    0    0    0    0    1.035522    -15.3633383    220    5    1.1    0.9;
    800    1    50.56    18    0    0.11    0    1.03516186    -12.3053415    220    5    1.1    0.9;
    803    2    0    0    0    0    0    1.041369    -24.7061936    220    5    1.1    0.9;
    804    1    -0    -0    0    7.26    0    1.05585939    -7.53804489    220    5    1.1    0.9;
    805    1    124.5    29.6    0    15.4    0    1.0567336    -11.0532469    220    5    1.1    0.9;
    809    1    0    -0    0    58.088687    0    1.02752457    0.212287815    380    5    1.1    0.9;
    819    1    0    -0    0    0.22    0    1.05216855    -0.689550651    220    5    1.1    0.9;
    823    2    0    0    0    0    0    1.044097    -2.07895952    380    5    1.1    0.9;
    839    1    -0    -0    0    8.17514    0    1.0244097    -1.10039391    380    5    1.1    0.9;
    851    2    0    0    0    0    0    1.00025    -17.0762409    220    5    1.1    0.9;
    858    2    0    0    0    0    0    1.031745    1.39152154    380    5    1.1    0.9;
    870    1    110    3.4    0    11.95    0    1.04076141    -24.4927603    220    5    1.1    0.9;
    871    1    108.89    -21.76    0    3.72    0    1.05693501    -12.0088064    220    5    1.1    0.9;
    883    1    192.5    78.3    0    6.65    0    1.0171894    -10.0952528    220    5    1.1    0.9;
    891    2    0    0    0    0    0    1.064525    -18.8562056    380    5    1.1    0.9;
    892    1    -0    -0    0    9.1    0    1.06919912    -34.8177765    220    5    1.1    0.9;
    900    1    0    0    0    0.15    0    1.05024718    -15.4903378    220    5    1.1    0.9;
    903    1    82.69    20.1    0    1.36    0    1.07385255    -26.2732753    220    5    1.1    0.9;
    905    1    631.71    -54.16    0    7.534129    0    1.03564291    -15.0029751    380    5    1.1    0.9;
    907    1    -0    -0    0    0.05    0    1.0385547    -9.7311022    220    5    1.1    0.9;
    908    1    125.9    -0.5    0    0.21    0    1.06521441    -8.00976999    220    5    1.1    0.9;
    920    1    34.44    8.5    0    1.11    0    1.04553944    -20.6607215    220    5    1.1    0.9;
    923    1    62.07    14.7    0    4.84    0    1.03559622    -22.9652878    220    5    1.1    0.9;
    933    1    -0    0    0    22.75    0    1.01994733    -21.4541959    220    5    1.1    0.9;
    935    1    -0    0    0    9.46    0    1.04919583    -24.3694178    220    5    1.1    0.9;
    953    1    108.7    -12.15    0    37.11    0    1.06601679    -12.8045633    380    5    1.1    0.9;
    954    1    66.27    13.6    0    0.67    0    1.0443282    -21.4281383    220    5    1.1    0.9;
    960    1    -0    -0    0    108.728602    0    1.06329504    -9.07851291    380    5    1.1    0.9;
    964    1    88.5    16.5    0    146.44    0    1.0155664    -11.5684384    380    5    1.1    0.9;
    972    2    0    0    0    0    0    1.072621    5.42982204    380    5    1.3    0.7;
    980    1    14.71    4.6    0    7.88    0    1.04717702    -25.0375755    220    5    1.1    0.9;
    1001    2    0    0    0    0    0    1.074143    -33.4417892    220    5    1.1    0.9;
    1002    2    0    0    0    0    0    1.041506    -19.9763713    220    5    1.1    0.9;
    1005    1    0    0    0    0.81    0    1.05395532    -12.3236806    220    5    1.1    0.9;
    1015    1    44.55    0    0    4.78    0    1.05627758    -5.32639606    220    5    1.1    0.9;
    1026    1    201.4    53    0    9.67    0    1.02818223    -29.2775607    220    5    1.1    0.9;
    1027    1    -5.91    -2.33    0    30.393595    0    0.99052149    -18.0494853    380    5    1.1    0.9;
    1033    1    26.33    5.3    0    4.31    0    1.04093388    -24.4126146    220    5    1.1    0.9;
    1035    1    382.5    57.9    0    8.16    0    1.06768581    -32.3969943    220    5    1.1    0.9;
    1039    1    34.64    -0    0    0.91    0    1.0344412    -19.471078    220    5    1.1    0.9;
    1040    1    31.94    8.8    0    3.79    0    1.03891314    -8.99113369    220    5    1.1    0.9;
    1043    2    0    0    0    0    0    1.028946    -3.64603295    380    5    1.1    0.9;
    1051    1    -0    0    0    3.79    0    1.04162736    -12.7720764    220    5    1.1    0.9;
    1077    1    -0    0    0    0.1    0    1.03558932    -12.2714325    220    5    1.1    0.9;
    1078    1    -0    -0    0    4.74    0    1.06150956    -3.40114379    220    5    1.1    0.9;
    1081    1    277.86    58.95    0    182.880644    0    1.03864194    -10.4462779    380    5    1.1    0.9;
    1083    2    0    0    0    0    0    1.049472    -8.54040256    220    5    1.1    0.9;
    1090    1    56.06    18.7    0    4.24    0    1.01006622    -21.5577837    220    5    1.1    0.9;
    1093    2    0    0    0    0    0    1.027056    -8.42023542    380    5    1.1    0.9;
    1096    1    0    -0    0    0.16    0    1.05018878    -1.08600404    220    5    1.1    0.9;
    1100    2    0    0    0    0    0    1.042801    -4.31410085    220    5    1.1    0.9;
    1101    1    -0    -0    0    2.05    0    1.03350878    -14.1367262    220    5    1.1    0.9;
    1102    2    0    0    0    0    0    1.049879    -6.48582117    220    5    1.1    0.9;
    1105    1    29.83    7.3    0    6.49    0    1.07472727    -26.1935013    220    5    1.1    0.9;
    1111    1    0    0    0    1.1    0    1.03682439    -8.7154302    220    5    1.1    0.9;
    1129    1    190.47    55.03    0    6.7    0    1.00329118    -22.3982282    220    5    1.1    0.9;
    1136    1    16.22    2    0    0.71    0    1.03480009    -18.4425658    220    5    1.1    0.9;
    1137    1    -0    -0    0    0.05    0    1.04867977    -24.3273265    220    5    1.1    0.9;
    1146    1    32.84    -0    0    1.41    0    1.03263869    -5.5575706    220    5    1.1    0.9;
    1151    1    -0    -0    0    18.82    0    1.04335613    -20.4975441    220    5    1.1    0.9;
    1153    1    12.41    3.9    0    2.23    0    1.03460067    -5.61447569    220    5    1.1    0.9;
    1156    1    65.67    24    0    9.95    0    1.03805203    -22.3772562    220    5    1.1    0.9;
    1159    1    112.4    13    0    3.99    0    1.05263057    -36.0114098    220    5    1.1    0.9;
    1172    1    -0    -0    0    2.3    0    1.07443627    -25.424779    220    5    1.1    0.9;
    1179    1    86.6    23.4    0    0.39    0    1.04089861    -2.74278789    220    5    1.1    0.9;
    1183    1    199.4    -19.9    0    6.68    0    1.06675736    -32.76889    220    5    1.1    0.9;
    1187    1    67.57    21.2    0    5.71    0    1.03985774    -4.88492797    220    5    1.1    0.9;
    1188    1    30.93    6.6    0    9.09    0    1.05449942    -14.1689079    220    5    1.1    0.9;
    1194    1    129.6    13.3    0    13.98    0    1.03898273    -15.0257069    380    5    1.1    0.9;
    1198    1    0    0    0    30.637696    0    0.98795584    -14.5149575    380    5    1.1    0.9;
    1201    1    114.1    23.5    0    1.08    0    1.05030811    -19.5909606    220    5    1.1    0.9;
    1216    1    0    0    0    4.93    0    1.04061421    -10.7139573    220    5    1.1    0.9;
    1233    1    0    -0    0    1.72    0    1.03797774    -22.4020887    220    5    1.1    0.9;
    1234    1    71.78    17.9    0    1.96    0    1.02264109    -16.4420867    220    5    1.1    0.9;
    1237    2    0    0    0    0    0    1.108028    -6.07117083    380    5    1.3    0.7;
    1248    1    0    0    0    1.17    0    1.04721016    -10.595301    220    5    1.1    0.9;
    1249    1    348.93    26.47    0    9.36    0    1.01941879    -11.2031795    380    5    1.1    0.9;
    1251    2    0    0    0    0    0    1.027102    -8.42971313    380    5    1.1    0.9;
    1262    1    -0    0    0    10.73    0    1.03860445    -21.9094403    220    5    1.1    0.9;
    1265    1    173    -21.3    0    5.93    0    1.06651847    -49.9557258    220    5    1.1    0.9;
    1275    1    52.46    2.9    0    0.35    0    1.0326654    -18.7622238    220    5    1.1    0.9;
    1295    2    0    0    0    0    0    1.03682    -8.57254509    220    5    1.1    0.9;
    1301    1    479    99.2    0    10.68    0    1.05179578    -28.5472238    220    5    1.1    0.9;
    1305    1    -0    -0    0    4.34    0    1.03825085    -22.2151551    220    5    1.1    0.9;
    1311    1    37.94    15.2    0    35.31    0    1.03391207    -21.5031483    380    5    1.1    0.9;
    1326    1    0    0    0    0.98    0    1.06934878    -34.8187711    220    5    1.1    0.9;
    1334    1    0    0    0    0.59    0    1.02520167    -16.2311811    220    5    1.1    0.9;
    1341    2    0    0    0    0    0    1.032899    -14.1325763    220    5    1.1    0.9;
    1343    1    -0    -0    0    58.3    0    0.996374588    -14.086235    380    5    1.1    0.9;
    1354    2    0    0    0    0    0    1.041045    -7.3492231    220    5    1.1    0.9;
    1355    1    -3.29    -1.32    0    190.704588    0    1.03280497    -8.49870455    380    5    1.1    0.9;
    1364    1    40.85    14.5    0    0.59    0    1.03985875    -12.012333    220    5    1.1    0.9;
    1380    1    145.2    21.4    0    1.09    0    1.0336671    -22.5366566    220    5    1.1    0.9;
    1394    1    30.93    7.6    0    4.69    0    1.07462748    -26.1818141    220    5    1.1    0.9;
    1397    1    0    -0    0    2.14    0    1.03792416    -12.7639525    220    5    1.1    0.9;
    1398    1    196.7    44.2    0    0.1    0    1.01732322    -18.9291864    220    5    1.1    0.9;
    1401    1    11.91    2.9    0    5.27    0    1.03865087    -14.6754258    220    5    1.1    0.9;
...
];

%% generator data
%    bus    Pg    Qg    Qmax    Qmin    Vg    mBase    status    Pmax    Pmin    Pc1    Pc2    Qc1min    Qc1max    Qc2min    Qc2max    ramp_agc    ramp_10    ramp_30    ramp_q    apf
mpc.gen = [
    124    861.3    56.5522648    440.32    -172.59    1.081537    100    1    1000    333.33    0    0    0    0    0    0    0    0    0    0    0;
    150    67.29    -2.20411186    77.09    -22.54    1.062805    100    1    160    0    0    0    0    0    0    0    0    0    0    0    0;
    221    -155.39    33.6846032    183.92    -65.3    0.984682    100    1    100    -207.18    0    0    0    0    0    0    0    0    0    0    0;
    338    83.7    2.69205967    55.54    -19.16    1.048249    100    1    120    0    0    0    0    0    0    0    0    0    0    0    0;
    352    1250.4    291.326024    926.35    -297.68    1.055378    100    1    2000    666.67    0    0    0    0    0    0    0    0    0    0    0;
    413    231    26.2905139    124.12    -49.84    1.05013    100    1    280    0    0    0    0    0    0    0    0    0    0    0    0;
    453    260.1    61.0382197    257.23    -74.4    1.018914    100    1    540    0    0    0    0    0    0    0    0    0    0    0    0;
    516    539.4    190.458909    261.79    -106.67    1.075592    100    1    600    200    0    0    0    0    0    0    0    0    0    0    0;
    564    -51.67    5.33432009    18.47    -19.35    1.069817    100    1    100    -68.89    0    0    0    0    0    0    0    0    0    0    0;
    583    -270    5.52511352    17.88    -7.03    1.045397    100    1    100    -360    0    0    0    0    0    0    0    0    0    0    0;
    615    38.2    0.370945883    17.09    -7.79    1.063876    100    1    40    0    0    0    0    0    0    0    0    0    0    0    0;
    616    379.2    40.9271976    217.9    -81.16    1.048713    100    1    480    160    0    0    0    0    0    0    0    0    0    0    0;
    639    -46.2    126.702427    135.52    -38.9    1.051376    100    1    100    -61.6    0    0    0    0    0    0    0    0    0    0    0;
    682    37.4    8.9802207    38.77    -11.06    1.0691    100    1    80    0    0    0    0    0    0    0    0    0    0    0    0;
    749    198.88    0.702956337    105.69    -43.84    1.057884    100    1    240    0    0    0    0    0    0    0    0    0    0    0    0;
    757    116.7    120.439447    51.3    -23.41    1.017567    100    1    120    0    0    0    0    0    0    0    0    0    0    0    0;
    776    -111.4    8.00341061    18.16    -6.73    1.026368    100    1    100    -148.53    0    0    0    0    0    0    0    0    0    0    0;
    778    16.5    4.7896668    12.37    -9.36    1.049411    100    1    33.58    0    0    0    0    0    0    0    0    0    0    0    0;
    795    58.4    8.17073878    36.75    -13.04    1.035522    100    1    80    0    0    0    0    0    0    0    0    0    0    0    0;
    803    -89.2    7.84461062    74.03    -25.54    1.041369    100    1    100    -118.93    0    0    0    0    0    0    0    0    0    0    0;
    823    1274.2    290.269189    926.68    -298.31    1.044097    100    1    2000    666.67    0    0    0    0    0    0    0    0    0    0    0;
    851    59.56    52.3533848    96.64    -27.81    1.00025    100    1    200    0    0    0    0    0    0    0    0    0    0    0    0;
    858    855.6    150.352068    440.67    -172.15    1.031745    100    1    1000    333.33    0    0    0    0    0    0    0    0    0    0    0;
    891    1702.8    660.894254    1097.41    -373.91    1.064525    100    1    2400    800    0    0    0    0    0    0    0    0    0    0    0;
    972    1221.2    403.055195    934.73    -291.52    1.072621    100    1    2000    666.67    0    0    0    0    0    0    0    0    0    0    0;
    1001    92.1    55.1138573    55.02    -19.81    1.074143    100    1    120    0    0    0    0    0    0    0    0    0    0    0    0;
    1002    171    11.5119491    89.55    -35.15    1.041506    100    1    200    0    0    0    0    0    0    0    0    0    0    0    0;
    1043    829.5    49.2039376    387.88    -163.4    1.028946    100    1    900    300    0    0    0    0    0    0    0    0    0    0    0;
    1083    91.8    9.91144904    54.91    -19.88    1.049472    100    1    120    0    0    0    0    0    0    0    0    0    0    0    0;
    1093    837    83.3759674    550.69    -185.15    1.027056    100    1    1200    400    0    0    0    0    0    0    0    0    0    0    0;
    1100    58.2    5.92889364    36.8    -13.01    1.042801    100    1    80    0    0    0    0    0    0    0    0    0    0    0    0;
    1102    -124.15    16.901695    38.05    -11.59    1.049879    100    1    100    -165.54    0    0    0    0    0    0    0    0    0    0    0;
    1237    1504.8    373.510775    906.61    -319.44    1.108028    100    1    2000    666.67    0    0    0    0    0    0    0    0    0    0    0;
    1251    837    78.4167587    550.69    -185.15    1.027102    100    1    1200    400    0    0    0    0    0    0    0    0    0    0    0;
    1295    -124.1    5.58842958    36.92    -12.88    1.03682    100    1    100    -165.47    0    0    0    0    0    0    0    0    0    0    0;
    1341    67.2    33.5068262    57.03    -17.62    1.032899    100    1    120    0    0    0    0    0    0    0    0    0    0    0    0;
    1354    -246.5    14.7858154    38.08    -11.73    1.041045    100    1    100    -328.67    0    0    0    0    0    0    0    0    0    0    0;
    1422    -101    15.3784713    18.09    -6.79    1.04353    100    1    100    -134.67    0    0    0    0    0    0    0    0    0    0    0;
    1436    49.4    2.9619547    37.72    -12.09    1.047684    100    1    80    0    0    0    0    0    0    0    0    0    0    0    0;
    1478    62.6    10.4003975    36.4    -13.44    1.048068    100    1    80    0    0    0    0    0    0    0    0    0    0    0    0;
    1604    50.6    14.0298985    37.66    -12.17    1.043862    100    1    80    0    0    0    0    0    0    0    0    0    0    0    0;
    1642    50.4    81.3234253    37.74    -12.11    1.028554    100    1    80    0    0    0    0    0    0    0    0    0    0    0    0;
    1680    1250.4    274.810421    928.89    -296.1    1.04395    100    1    2000    666.67    0    0    0    0    0    0    0    0    0    0    0;
    1708    860.8    122.075583    439.37    -173.3    1.037938    100    1    1000    333.33    0    0    0    0    0    0    0    0    0    0    0;
    1721    28.1    1.78649018    18.52    -6.39    1.062238    100    1    40    0    0    0    0    0    0    0    0    0    0    0    0;
    1754    40    163.363396    16.99    -7.92    1.04286    100    1    41.06    0    0    0    0    0    0    0    0    0    0    0    0;
    1794    1250.4    267.863517    926.35    -297.68    1.05295    100    1    2000    666.67    0    0    0    0    0    0    0    0    0    0    0;
    1808    -0.6    -4.59102677    111.23    -38.16    1.046224    100    1    100    -0.8    0    0    0    0    0    0    0    0    0    0    0;
    1851    15.6    -1.21177088    11.76    -8.89    1.04762    100    1    31.92    0    0    0    0    0    0    0    0    0    0    0    0;
    1852    -241.8    17.1280537    58.16    -16.52    1.054325    100    1    100    -322.4    0    0    0    0    0    0    0    0    0    0    0;
    1888    573.68    36.8919784    396.02    -155.83    1.039377    100    1    912.78    312.78    0    0    0    0    0    0    0    0    0    0    0;
    1914    115.5    -45.0146169    160.36    -150.95    1.035636    100    1    472.16    39.35    0    0    0    0    0    0    0    0    0    0    0;
    1959    31    1.12819635    18.14    -6.75    1.064692    100    1    40    0    0    0    0    0    0    0    0    0    0    0    0;
    2035    855.6    152.115793    441.85    -171.27    1.03088    100    1    1000    333.33    0    0    0    0    0    0    0    0    0    0    0;
    2050    836.2    0.991938222    962.2    -263.65    1.009914    100    1    2000    666.67    0    0    0    0    0    0    0    0    0    0    0;
    2085    176    32.3730356    88.39    -36.19    1.040351    100    1    200    0    0    0    0    0    0    0    0    0    0    0    0;
    2177    -121.3    31.5120061    58.35    -16.26    1.07333    100    1    100    -161.73    0    0    0    0    0    0    0    0    0    0    0;
    2197    -53.29    35.3717533    19.51    -14.74    1.035528    100    1    100    -71.05    0    0    0    0    0    0    0    0    0    0    0;
    2276    38.9    -20.9906138    41.67    -36.5    1.05324    100    1    119.3    0    0    0    0    0    0    0    0    0    0    0    0;
    2291    110.5    18.2198696    95.69    -28.93    1.072528    100    1    200    0    0    0    0    0    0    0    0    0    0    0    0;
    2359    78.2    25.0622954    34.35    -15.5    1.024884    100    1    80    0    0    0    0    0    0    0    0    0    0    0    0;
    2421    -320.4    12.1325128    37.39    -12.45    1.047766    100    1    100    -427.2    0    0    0    0    0    0    0    0    0    0    0;
    2425    -100.5    6.93009892    54.3    -20.49    1.041186    100    1    100    -134    0    0    0    0    0    0    0    0    0    0    0;
    2426    -43.2    -17.5890254    105.34    -99.02    1.037687    100    1    100    -57.6    0    0    0    0    0    0    0    0    0    0    0;
    2446    1367    304.216039    921.62    -304.73    1.06157    100    1    2000    666.67    0    0    0    0    0    0    0    0    0    0    0;
    2468    46.8    5.35891752    38.02    -11.81    1.048132    100    1    80    0    0    0    0    0    0    0    0    0    0    0    0;
    2481    31.8    14.611676    39.12    -10.71    1.042777    100    1    80    0    0    0    0    0    0    0    0    0    0    0    0;
    2489    286.5    -14.2523189    162.4    -61.79    1.049366    100    1    360    0    0    0    0    0    0    0    0    0    0    0    0;
    2550    54.3    4.34898631    58.23    -16.49    1.049384    100    1    120    0    0    0    0    0    0    0    0    0    0    0    0;
    2600    76.48    17.1620868    76.08    -23.59    1.038821    100    1    160    0    0    0    0    0    0    0    0    0    0    0    0;
    2627    1367    314.439985    921.52    -304.79    1.061488    100    1    2000    666.67    0    0    0    0    0    0    0    0    0    0    0;
    2653    41.92    32.6550406    51.94    -22.8    1.036517    100    1    120    0    0    0    0    0    0    0    0    0    0    0    0;
    2719    77.6    -13.2491088    70.15    -58.1    1.035384    100    1    196.72    0    0    0    0    0    0    0    0    0    0    0    0;
    2786    1221.2    382.189134    934.81    -291.47    1.073795    100    1    2000    666.67    0    0    0    0    0    0    0    0    0    0    0;
    2797    -95.1    -3.33274118    88.33    -36.33    1.042226    100    1    100    -126.8    0    0    0    0    0    0    0    0    0    0    0;
    2799    66.8    -1.218749    77.91    -21.66    1.05396    100    1    160    0    0    0    0    0    0    0    0    0    0    0    0;
    2816    1250.4    285.574899    926.26    -297.74    1.053944    100    1    2000    666.67    0    0    0    0    0    0    0    0    0    0    0;
    2841    80.7    -2.76078809    55.98    -18.76    1.08248    100    1    120    0    0    0    0    0    0    0    0    0    0    0    0;
    2842    31.6    5.83254458    18.19    -6.74    1.043712    100    1    40    0    0    0    0    0    0    0    0    0    0    0    0;
    2872    4.5    0.80297128    3.31    -2.54    1.063841    100    1    9.05    0    0    0    0    0    0    0    0    0    0    0    0;
    2878    8.95    -7.80982341    72.95    -68.71    1.057626    100    1    214.86    0    0    0    0    0    0    0    0    0    0    0    0;
    2886    60.9    13.0767914    57.69    -17.02    1.055151    100    1    120    0    0    0    0    0    0    0    0    0    0    0    0;
    2902    20.9    1.16174948    19.19    -5.72    1.059072    100    1    40    0    0    0    0    0    0    0    0    0    0    0    0;
    2930    53.2    2.59055358    37.24    -12.54    1.047695    100    1    80    0    0    0    0    0    0    0    0    0    0    0    0;
    2934    3.4    0.108232939    2.51    -1.91    1.051149    100    1    6.83    0    0    0    0    0    0    0    0    0    0    0    0;
    2985    46.6    -57.4198644    184.46    -132.67    1.053607    100    1    493.35    0    0    0    0    0    0    0    0    0    0    0    0;
    3018    162.5    -4.72066428    89.61    -34.82    1.041705    100    1    200    0    0    0    0    0    0    0    0    0    0    0    0;
    3028    855.7    148.665465    441.85    -171.27    1.030654    100    1    1000    333.33    0    0    0    0    0    0    0    0    0    0    0;
    3114    38.6    4.85743736    17.33    -7.61    1.071964    100    1    40    0    0    0    0    0    0    0    0    0    0    0    0;
    3133    85.54    11.6127177    113.97    -35.56    1.065372    100    1    240    0    0    0    0    0    0    0    0    0    0    0    0;
    3134    -136.3    -6.00376617    70.25    -29.33    1.023117    100    1    100    -181.73    0    0    0    0    0    0    0    0    0    0    0;
    3183    98.7    -2.68744793    53.7    -20.98    1.055515    100    1    120    0    0    0    0    0    0    0    0    0    0    0    0;
    3205    416.7    239.986085    243.61    -88.46    1.041982    100    1    540    0    0    0    0    0    0    0    0    0    0    0    0;
    3218    -107.4    12.0488505    36.79    -13    1.028507    100    1    100    -143.2    0    0    0    0    0    0    0    0    0    0    0;
    3240    -42.3    -13.9802403    62.23    -51.37    1.050305    100    1    100    -56.4    0    0    0    0    0    0    0    0    0    0    0;
    3306    861.3    143.61165    439.2    -173.43    1.071978    100    1    1000    333.33    0    0    0    0    0    0    0    0    0    0    0;
    3324    -26.48    17.5396326    38.13    -11.64    1.014126    100    1    100    -35.3    0    0    0    0    0    0    0    0    0    0    0;
    3346    56.8    368.714428    37.1    -12.76    1.01594    100    1    80    0    0    0    0    0    0    0    0    0    0    0    0;
    3353    19.07    5.97315998    38.2    -11.61    1.045739    100    1    80    0    0    0    0    0    0    0    0    0    0    0    0;
    3364    44.5    -21.9976988    47.19    -41.44    1.0538    100    1    135.27    0    0    0    0    0    0    0    0    0    0    0    0;
    3390    2.4    9.88942641    54.59    -20.19    1.039984    100    1    120    0    0    0    0    0    0    0    0    0    0    0    0;
    3422    53.7    -3.15788188    58.19    -16.5    1.063657    100    1    120    0    0    0    0    0    0    0    0    0    0    0    0;
    3436    521    230.905991    550.97    -184.89    1.060777    100    1    1200    400    0    0    0    0    0    0    0    0    0    0    0;
    3492    -370.8    13.4108942    53.75    -21.08    1.04852    100    1    100    -494.4    0    0    0    0    0    0    0    0    0    0    0;
    3513    829.8    110.892103    387.88    -163.4    1.028771    100    1    900    300    0    0    0    0    0    0    0    0    0    0    0;
    3565    15.88    6.4246181    38.83    -10.97    1.081614    100    1    80    0    0    0    0    0    0    0    0    0    0    0    0;
    3580    539    189.226835    261.7    -107.36    1.07602    100    1    600    0    0    0    0    0    0    0    0    0    0    0    0;
    3611    -125.4    6.05098738    54.59    -20.12    1.03905    100    1    100    -167.2    0    0    0    0    0    0    0    0    0    0    0;
    3656    -26.2    17.4054234    116.07    -33.32    1.070983    100    1    100    -34.93    0    0    0    0    0    0    0    0    0    0    0;
    3661    861.2    119.219554    441.04    -172.05    1.059676    100    1    1000    333.33    0    0    0    0    0    0    0    0    0    0    0;
    3698    -12.58    26.2479784    36.34    -13.47    1.041813    100    1    100    -16.78    0    0    0    0    0    0    0    0    0    0    0;
    3741    854.7    192.28963    548.57    -187.16    1.031629    100    1    1200    400    0    0    0    0    0    0    0    0    0    0    0;
    3809    257    128.436698    313.01    -116.73    1.084785    100    1    700    233.33    0    0    0    0    0    0    0    0    0    0    0;
    3825    837.3    55.1807314    388.17    -163.4    1.026994    100    1    900    300    0    0    0    0    0    0    0    0    0    0    0;
    3869    855.6    150.486409    440.69    -172.14    1.031907    100    1    1000    333.33    0    0    0    0    0    0    0    0    0    0    0;
    3876    -25.1    -0.73120672    34.27    -15.52    1.044501    100    1    100    -33.47    0    0    0    0    0    0    0    0    0    0    0;
    3916    -21.27    17.7844338    38.02    -11.77    1.043758    100    1    100    -28.37    0    0    0    0    0    0    0    0    0    0    0;
    3951    -27.1    -72.9893147    126.16    -127.56    1.027439    100    1    100    -36.13    0    0    0    0    0    0    0    0    0    0    0;
    3971    -134.5    10.0164622    55.67    -19.09    1.063145    100    1    100    -179.33    0    0    0    0    0    0    0    0    0    0    0;
    4024    89.5    40.904321    97.07    -27.44    1.040328    100    1    200    0    0    0    0    0    0    0    0    0    0    0    0;
    4056    -76.9    3.77338606    38.05    -11.77    1.038526    100    1    100    -102.53    0    0    0    0    0    0    0    0    0    0    0;
    4084    366.1    54.2631448    264.94    -103.74    1.063234    100    1    600    0    0    0    0    0    0    0    0    0    0    0    0;
    4118    41    9.14078449    38.37    -11.4    1.027195    100    1    80    0    0    0    0    0    0    0    0    0    0    0    0;
    4125    59.6    67.2816688    36.89    -13    1.003502    100    1    80    0    0    0    0    0    0    0    0    0    0    0    0;
    4128    67.5    24.1579208    57.03    -17.63    1.019761    100    1    120    0    0    0    0    0    0    0    0    0    0    0    0;
    4231    2611.43749    870.049716    99999    -99999    1.049182    100    1    4188.95    1333.33    0    0    0    0    0    0    0    0    0    0    0;
    4331    60.2    6.92503953    36.73    -13.12    1.028646    100    1    80    0    0    0    0    0    0    0    0    0    0    0    0;
    4395    -129.1    7.63754356    38.48    -11.33    1.039834    100    1    100    -172.13    0    0    0    0    0    0    0    0    0    0    0;
    4419    861.3    121.93092    441.04    -172.05    1.059565    100    1    1000    333.33    0    0    0    0    0    0    0    0    0    0    0;
    4480    861.3    143.734942    439.2    -173.43    1.071852    100    1    1000    333.33    0    0    0    0    0    0    0    0    0    0    0;
    4482    35.2    14.092682    38.85    -10.95    1.049914    100    1    80    0    0    0    0    0    0    0    0    0    0    0    0;
    4506    -171.8    17.9698387    37.86    -11.95    1.036047    100    1    100    -229.07    0    0    0    0    0    0    0    0    0    0    0;
    4566    -30.39    10.0852943    37.94    -11.87    1.073282    100    1    100    -40.51    0    0    0    0    0    0    0    0    0    0    0;
    4624    68    8.34139275    35.62    -14.19    1.042135    100    1    80    0    0    0    0    0    0    0    0    0    0    0    0;
    4661    -78.9    8.29487911    19.14    -5.77    1.049813    100    1    100    -105.2    0    0    0    0    0    0    0    0    0    0    0;
    4701    93.2    -37.6410231    98.4    -86.29    1.043063    100    1    281.85    0    0    0    0    0    0    0    0    0    0    0    0;
    4783    861.3    141.58025    439.2    -173.43    1.071981    100    1    1000    333.33    0    0    0    0    0    0    0    0    0    0    0;
    4816    -26.08    38.4803187    38.37    -11.44    1.067305    100    1    100    -34.77    0    0    0    0    0    0    0    0    0    0    0;
    4819    855.6    152.240915    440.69    -172.14    1.031907    100    1    1000    333.33    0    0    0    0    0    0    0    0    0    0    0;
    4823    10.3    1.90921982    4.44    -2.07    1.067114    100    1    10.46    0    0    0    0    0    0    0    0    0    0    0    0;
    4850    88.8    15.079187    76.52    -23.19    1.054975    100    1    160    0    0    0    0    0    0    0    0    0    0    0    0;
    4880    -40.3    6.36794198    75.62    -23.96    1.034991    100    1    100    -53.73    0    0    0    0    0    0    0    0    0    0    0;
    4918    41.69    22.6607015    37.27    -12.57    1.057325    100    1    80    0    0    0    0    0    0    0    0    0    0    0    0;
    4952    -12.57    7.01992679    37.23    -12.61    1.045386    100    1    100    -16.77    0    0    0    0    0    0    0    0    0    0    0;
    5004    54.3    13.963963    74.73    -70.41    1.0663    100    1    220.12    0    0    0    0    0    0    0    0    0    0    0    0;
    5019    49.4    2.93988039    37.72    -12.09    1.047693    100    1    80    0    0    0    0    0    0    0    0    0    0    0    0;
    5051    83.48    6.64779749    74.55    -24.97    1.037373    100    1    160    0    0    0    0    0    0    0    0    0    0    0    0;
    5067    542    147.269055    258.91    -109.58    1.021924    100    1    600    0    0    0    0    0    0    0    0    0    0    0    0;
    5110    -52.51    11.1575618    38.28    -11.5    1.032061    100    1    100    -70.01    0    0    0    0    0    0    0    0    0    0    0;
    5120    75.6    -3.90906638    56.35    -18.42    1.055539    100    1    120    0    0    0    0    0    0    0    0    0    0    0    0;
    5144    1713.6    229.55721    882.86    -343.24    1.035201    100    1    2000    666.67    0    0    0    0    0    0    0    0    0    0    0;
    5237    106.8    19.2299805    75.02    -24.74    1.052719    100    1    160    0    0    0    0    0    0    0    0    0    0    0    0;
    5278    119.4    2.15740205    51.3    -23.49    1.042037    100    1    120    0    0    0    0    0    0    0    0    0    0    0    0;
    5340    -159    21.1053537    36.37    -13.43    1.054941    100    1    100    -212    0    0    0    0    0    0    0    0    0    0    0;
    5365    19.59    26.2105393    18.14    -6.75    1.061754    100    1    40    0    0    0    0    0    0    0    0    0    0    0    0;
    5379    1250.6    366.770401    926.47    -297.63    1.107976    100    1    2000    666.67    0    0    0    0    0    0    0    0    0    0    0;
    5395    -395.8    20.9578319    58.06    -16.66    1.048137    100    1    100    -527.73    0    0    0    0    0    0    0    0    0    0    0;
    5461    43.4    35.9911292    38.26    -11.55    1.06213    100    1    80    0    0    0    0    0    0    0    0    0    0    0    0;
    5481    1368.6    147.246328    920.31    -305.64    1.063711    100    1    2000    666.67    0    0    0    0    0    0    0    0    0    0    0;
    5482    56.8    -2.04470932    101.32    -48.12    1.044486    100    1    249.06    0    0    0    0    0    0    0    0    0    0    0    0;
    5486    861.3    119.915649    441.04    -172.05    1.059636    100    1    1000    333.33    0    0    0    0    0    0    0    0    0    0    0;
    5488    -96.4    31.1046631    37.49    -12.33    1.041881    100    1    100    -128.53    0    0    0    0    0    0    0    0    0    0    0;
    5490    3424.8    361.345368    1765.36    -686.67    1.068845    100    1    4000    1333.33    0    0    0    0    0    0    0    0    0    0    0;
    5533    173    16.1909395    88.87    -35.71    1.038212    100    1    200    0    0    0    0    0    0    0    0    0    0    0    0;
    5546    21.5    2.58802377    19.16    -5.75    1.05378    100    1    40    0    0    0    0    0    0    0    0    0    0    0    0;
    5564    57.6    12.0595616    36.8    -12.99    1.04123    100    1    80    0    0    0    0    0    0    0    0    0    0    0    0;
    5658    229.8    254.675423    103.18    -46.25    1.017689    100    1    240    0    0    0    0    0    0    0    0    0    0    0    0;
    5664    128    15.4828541    72.71    -27.05    1.070507    100    1    160    0    0    0    0    0    0    0    0    0    0    0    0;
    5709    837    75.9795205    550.69    -185.15    1.027078    100    1    1200    400    0    0    0    0    0    0    0    0    0    0    0;
    5781    1102.83    465.023267    779.29    -324.79    1.0396    100    1    1800    600    0    0    0    0    0    0    0    0    0    0    0;
    5814    181.2    50.8619859    196.98    -77.17    1.044051    100    1    440    146.67    0    0    0    0    0    0    0    0    0    0    0;
    5856    305.7    47.6230474    214.13    -85    1.038417    100    1    480    160    0    0    0    0    0    0    0    0    0    0    0;
    5881    60    8.0736098    36.72    -13.13    1.065605    100    1    80    0    0    0    0    0    0    0    0    0    0    0    0;
    5940    -74.9    9.25415442    17.21    -7.73    1.030075    100    1    100    -99.87    0    0    0    0    0    0    0    0    0    0    0;
    5971    1221.2    381.119293    934.54    -291.64    1.070056    100    1    2000    666.67    0    0    0    0    0    0    0    0    0    0    0;
    5983    -102.5    63.6645033    37.27    -12.59    1.066029    100    1    100    -136.67    0    0    0    0    0    0    0    0    0    0    0;
    5994    -87.3    -12.5317951    60.51    -61.08    1.029184    100    1    100    -116.4    0    0    0    0    0    0    0    0    0    0    0;
    6036    820.2    308.663229    390.4    -161.16    1.043738    100    1    900    300    0    0    0    0    0    0    0    0    0    0    0;
    6153    94.3    -30.5718036    249.65    -261.82    0.988112    100    1    769.94    32.08    0    0    0    0    0    0    0    0    0    0    0;
    6168    26.3    1.68119293    19.86    -14.93    1.040343    100    1    53.76    0    0    0    0    0    0    0    0    0    0    0    0;
    6291    55.5    29.3617539    58.12    -16.6    1.040598    100    1    120    0    0    0    0    0    0    0    0    0    0    0    0;
    6331    48.8    6.0677881    37.76    -12.05    1.052181    100    1    80    0    0    0    0    0    0    0    0    0    0    0    0;
    6332    96    -8.55142418    96.56    -27.95    1.062214    100    1    200    0    0    0    0    0    0    0    0    0    0    0    0;
    6351    22.08    19.7954074    38.29    -11.56    1.064446    100    1    80    0    0    0    0    0    0    0    0    0    0    0    0;
    6368    -145.3    10.5233099    51.11    -23.46    1.043835    100    1    100    -193.73    0    0    0    0    0    0    0    0    0    0    0;
    6376    -27.8    -12.8156414    148.65    -50.73    1.046714    100    1    100    -37.07    0    0    0    0    0    0    0    0    0    0    0;
    6429    171    18.5573852    88.83    -35.69    1.039574    100    1    200    0    0    0    0    0    0    0    0    0    0    0    0;
    6474    718.5    -4.47301261    438.72    -174.15    1.06557    100    1    1000    333.33    0    0    0    0    0    0    0    0    0    0    0;
    6516    228.2    13.0461303    126.73    -47.83    1.052452    100    1    280    0    0    0    0    0    0    0    0    0    0    0    0;
    6552    -204.2    11.3338021    37.58    -12.16    1.048796    100    1    100    -272.27    0    0    0    0    0    0    0    0    0    0    0;
    6734    382.7    -55.4244712    311.52    -132.09    1.061492    100    1    720    0    0    0    0    0    0    0    0    0    0    0    0;
    6807    44.07    33.1981527    77.14    -22.46    1.006037    100    1    160    0    0    0    0    0    0    0    0    0    0    0    0;
    6816    16.53    4.63033171    77.35    -22.26    1.053803    100    1    160    0    0    0    0    0    0    0    0    0    0    0    0;
    6820    15.9    -0.292037141    11.99    -9.06    1.049557    100    1    32.53    0    0    0    0    0    0    0    0    0    0    0    0;
    6831    -57.5    8.66288375    35.62    -14.25    1.031347    100    1    100    -76.67    0    0    0    0    0    0    0    0    0    0    0;
    6845    102.9    18.2364781    53.24    -21.47    1.055216    100    1    120    0    0    0    0    0    0    0    0    0    0    0    0;
    6852    -344.9    10.2407372    18.56    -6.34    1.031296    100    1    100    -459.87    0    0    0    0    0    0    0    0    0    0    0;
    6857    2463.6    460.95466    1865.83    -585.95    1.021411    100    1    4000    1333.33    0    0    0    0    0    0    0    0    0    0    0;
    6888    133    15.2756252    189.31    -59.87    1.039234    100    1    300    88.67    0    0    0    0    0    0    0    0    0    0    0;
    6947    227.5    6.10440601    126.09    -48.29    1.051367    100    1    280    0    0    0    0    0    0    0    0    0    0    0    0;
...
];

%% branch data
%    fbus    tbus    r    x    b    rateA    rateB    rateC    ratio    angle    status    angmin    angmax    Pf    Qf    Pt    Qt
mpc.branch = [
    7351    5441    0.00018    0.000781    0    0    0    0    0    0    1    -360    360    -61.6700    -16.2462    61.6768    16.2757;
    4314    7571    0.002961    0.01669    0    319    0    0    0    0    1    -360    360    -26.1300    -0.8468    26.1486    0.9514;
    5803    3916    0.00056    0.00432    0    0    0    0    0    0    1    -360    360    -0.0000    0.3813    0.0000    -0.3813;
    6757    6036    0.0002    0.00246    0    657    0    0    0    0    1    -360    360    -223.9184    -105.0683    224.0313    106.4575;
    6757    6921    0.0003    0.00377    0    1315    0    0    0    0    1    -360    360    223.9184    112.1855    -223.7446    -110.0026;
    5019    9112    0.00014    0.00057    0    0    0    0    0    0    1    -360    360    49.4000    2.9399    -49.3969    -2.9272;
    2930    9112    0.00013    0.000729    0    0    0    0    0    0    1    -360    360    53.2000    2.5906    -53.1966    -2.5717;
    1436    9112    0.00012    0.000581    0    0    0    0    0    0    1    -360    360    49.4000    2.9620    -49.3973    -2.9490;
    1851    9112    0.00011    0.00064    0    0    0    0    0    0    1    -360    360    15.6000    -1.2118    -15.5998    1.2132;
    8331    9112    0.00019    0.00056    0    0    0    0    0    0    1    -360    360    0.0000    0.0549    0.0000    -0.0549;
    6220    8791    0.00062    0.004909    0    529    0    0    0    0    1    -360    360    -231.9000    -27.1991    232.2035    29.6020;
    9203    7842    7e-05    0.00076    0    887    0    0    0    0    1    -360    360    -164.9806    -23.4970    165.0000    23.7074;
    9203    8997    0.00066    0.00622    0    1611    0    0    0    0    1    -360    360    174.1321    54.6547    -173.9130    -52.5895;
    9203    2129    0.00054    0.00752    0    0    0    0    0    0    1    -360    360    -1023.5266    -86.7713    1029.2060    165.8614;
    9203    29    0.00105    0.00877    0    1315    0    0    0    0    1    -360    360    248.4707    55.1655    -247.7927    -49.5025;
    118    8903    8e-05    0.00091    0    657    0    0    0    0    1    -360    360    -16.9998    0.9993    17.0000    -0.9967;
    118    4598    0.00056    0.00719    0    953    0    0    0    0    1    -360    360    -864.7945    29.0519    868.8224    22.6635;
    2426    5533    0.000531    0.002039    0    319    0    0    0    0    1    -360    360    -92.2512    -2.6147    92.2932    2.7760;
    2426    4831    0.008659    0.03769    0    300    0    0    0    0    1    -360    360    107.1122    15.9209    -106.1692    -11.8164;
    2426    8961    0.003849    0.021099    0    0    0    0    0    0    1    -360    360    38.4435    4.0842    -38.3901    -3.7913;
    2426    8522    0.00688    0.035969    0    300    0    0    0    0    1    -360    360    106.9864    33.2330    -106.1845    -29.0406;
    2426    6888    0.006729    0.03713    0    0    0    0    0    0    1    -360    360    -5.3108    -3.3572    5.3133    3.3708;
    2426    3401    0.00111    0.006651    0    414    0    0    0    0    1    -360    360    106.2846    29.0116    -106.1595    -28.2619;
    2426    641    0.0023    0.008909    0    0    0    0    0    0    1    -360    360    45.3708    17.9039    -45.3200    -17.7071;
    2426    2600    0.000841    0.00313    0    0    0    0    0    0    1    -360    360    -76.4321    -16.9839    76.4800    17.1621;
    2426    5351    0.003521    0.017479    0    300    0    0    0    0    1    -360    360    42.1893    10.1868    -42.1277    -9.8811;
    3051    718    3.9e-05    0.00025    0    510    0    0    0    0    1    -360    360    0.0000    0.0000    0.0000    0.0000;
    3036    2327    0.000159    0.000729    0    357    0    0    0    0    1    -360    360    -116.9300    -29.9290    116.9511    30.0259;
    8651    7473    0.005281    0.032099    0    395    0    0    0    0    1    -360    360    -77.6350    -20.0005    77.9582    21.9649;
    8651    7473    0.005651    0.029419    0    376    0    0    0    0    1    -360    360    -84.8550    -19.4593    85.2628    21.5823;
    903    3654    0.000271    0.00036    0    0    0    0    0    0    1    -360    360    -82.6900    -18.5317    82.7069    18.5541;
    8732    7050    0.00044    0.00143    0    472    0    0    0    0    1    -360    360    112.6437    -15.4308    -112.5909    15.6023;
    8732    3912    0.000159    0.00074    0    453    0    0    0    0    1    -360    360    -178.9137    10.0740    178.9611    -9.8535;
    2273    1973    0.00019    0.000591    0    338    0    0    0    0    1    -360    360    -141.3000    -23.9860    141.3338    24.0912;
    5131    2928    0.00019    0.00087    0    0    0    0    0    0    1    -360    360    -0.0000    9.0535    0.0001    -9.0529;
    6629    4918    0.002591    0.013659    0    319    0    0    0    0    1    -360    360    -53.6182    -12.1157    53.6886    12.4870;
    6629    7309    0.00305    0.01168    0    0    0    0    0    0    1    -360    360    -9.0118    -1.9273    9.0141    1.9362;
    413    1102    0.000159    0.000599    0    433    0    0    0    0    1    -360    360    117.4183    12.8713    -117.3982    -12.7955;
    413    1102    0.000159    0.00062    0    395    0    0    0    0    1    -360    360    113.5817    13.4192    -113.5629    -13.3457;
    3248    4918    0.00101    0.004229    0    472    0    0    0    0    1    -360    360    -141.0656    -24.7383    141.2517    25.5177;
    3248    4281    0.00319    0.018651    0    453    0    0    0    0    1    -360    360    47.8609    13.8689    -47.7897    -13.4528;
    3248    7309    0.000729    0.00337    0    0    0    0    0    0    1    -360    360    9.0147    0.4698    -9.0141    -0.4674;
    1146    1187    0.002961    0.012831    0    281    0    0    0    0    1    -360    360    -105.8814    -33.0880    106.2231    34.5687;
    1146    7945    0.000591    0.00339    0    0    0    0    0    0    1    -360    360    73.0414    34.5915    -73.0052    -34.3839;
    8900    2421    0.00024    0.001219    0    0    0    0    0    0    1    -360    360    -3.1000    -1.5012    3.1000    1.5013;
    6071    2972    0.006219    0.036341    0    376    0    0    0    0    1    -360    360    -65.1826    4.4310    65.4300    -2.9850;
    6071    6031    0.001841    0.01193    0    472    0    0    0    0    1    -360    360    -98.3174    -35.1071    98.5045    36.3192;
    3293    7264    0.001409    0.01113    0    414    0    0    0    0    1    -360    360    -96.1705    -30.2071    96.3032    31.2557;
    3293    283    0.00151    0.00768    0    376    0    0    0    0    1    -360    360    150.0525    11.1335    -149.7356    -9.5214;
    3293    3069    0.00599    0.03313    0    395    0    0    0    0    1    -360    360    -97.4459    28.9719    98.0199    -25.7973;
    3293    3390    0.001771    0.010151    0    357    0    0    0    0    1    -360    360    10.4238    -16.6340    -10.4175    16.6702;
    4689    4936    0.00074    0.00311    0    0    0    0    0    0    1    -360    360    -55.2026    9.7971    55.2237    -9.7083;
    4689    4936    0.000729    0.003159    0    0    0    0    0    0    1    -360    360    -54.4974    9.2902    54.5177    -9.2024;
    3218    7809    0.005271    0.01906    0    281    0    0    0    0    1    -360    360    29.8719    10.9661    -29.8214    -10.7837;
    3218    5455    0.00906    0.053151    0    319    0    0    0    0    1    -360    360    -114.8266    -4.2179    115.9574    10.8517;
    3218    1857    0.00405    0.0153    0    0    0    0    0    0    1    -360    360    -22.4452    5.3006    22.4656    -5.2237;
    6806    5410    0.00055    0.003961    0    395    0    0    0    0    1    -360    360    55.4059    15.3868    -55.3893    -15.2672;
    6806    5410    0.00055    0.003729    0    338    0    0    0    0    1    -360    360    58.9178    15.8261    -58.8991    -15.6994;
    6806    1609    0.00107    0.007789    0    414    0    0    0    0    1    -360    360    -148.6283    -26.7928    148.8511    28.4146;
    6806    1609    0.00112    0.00775    0    472    0    0    0    0    1    -360    360    -149.4136    -25.8552    149.6487    27.4820;
    6806    1609    0.001031    0.00775    0    0    0    0    0    0    1    -360    360    -149.3461    -27.5800    149.5632    29.2120;
    6806    2438    0.00062    0.003219    0    0    0    0    0    0    1    -360    360    0.0000    -1.1502    -0.0000    1.1502;
    6806    954    0.00068    0.002659    0    414    0    0    0    0    1    -360    360    197.2242    39.2011    -196.9732    -38.2196;
    9140    502    0.00193    0.012479    0    491    0    0    0    0    1    -360    360    223.4871    19.1744    -222.6056    -13.4753;
    9140    3013    0.001159    0.007229    0    0    0    0    0    0    1    -360    360    2.2001    0.3622    -2.2000    -0.3619;
    9140    2949    0.00137    0.008729    0    395    0    0    0    0    1    -360    360    -86.3609    4.0068    86.4539    -3.4146;
    9140    2949    0.001401    0.00855    0    433    0    0    0    0    1    -360    360    -88.0442    4.6796    88.1430    -4.0763;
    9140    2949    0.001331    0.008521    0    433    0    0    0    0    1    -360    360    -88.4821    4.0406    88.5768    -3.4338;
    7070    2208    0.00031    0.00081    0    281    0    0    0    0    1    -360    360    74.9973    23.6750    -74.9800    -23.6297;
    7070    8060    0.000341    0.00119    0    281    0    0    0    0    1    -360    360    0.0006    -13.2923    -0.0000    13.2942;
    7070    4484    0.00031    0.001281    0    376    0    0    0    0    1    -360    360    -102.6938    -5.1576    102.7234    5.2801;
    7070    4239    0.00094    0.0035    0    433    0    0    0    0    1    -360    360    -115.2041    -4.2895    115.3171    4.7102;
    8535    7047    7e-05    0.000651    0    0    0    0    0    0    1    -360    360    -72.6800    -20.9494    72.6837    20.9841;
...